Version 4
SHEET 1 880 680
WIRE 352 48 80 48
WIRE 352 112 352 48
WIRE 352 112 256 112
WIRE 448 112 352 112
WIRE 256 128 256 112
WIRE 448 128 448 112
WIRE 208 144 192 144
WIRE 512 144 496 144
WIRE -224 160 -400 160
WIRE 80 192 80 48
WIRE -224 208 -304 208
WIRE -400 240 -400 160
WIRE -304 240 -304 208
WIRE 256 240 256 224
WIRE 352 240 256 240
WIRE 448 240 448 224
WIRE 448 240 352 240
WIRE 352 288 352 240
WIRE 528 288 352 288
WIRE 352 304 352 288
WIRE -400 384 -400 320
WIRE -352 384 -400 384
WIRE -304 384 -304 320
WIRE -304 384 -352 384
WIRE 304 384 272 384
WIRE -352 416 -352 384
WIRE 352 432 352 400
WIRE 304 512 272 512
WIRE 80 560 80 272
WIRE 224 560 80 560
WIRE 352 560 352 528
WIRE 352 560 224 560
WIRE 224 576 224 560
FLAG -352 416 0
FLAG -224 160 A
FLAG -224 208 B
FLAG 192 144 A
FLAG 512 144 B
FLAG 224 576 0
FLAG 272 384 A
FLAG 272 512 B
FLAG 528 288 S
SYMBOL voltage 80 176 R0
WINDOW 123 0 0 Left 0
WINDOW 39 0 0 Left 0
SYMATTR InstName +5V
SYMATTR Value 5V
SYMBOL voltage -400 224 R0
WINDOW 3 -339 32 Left 2
WINDOW 123 0 0 Left 0
WINDOW 39 0 0 Left 0
SYMATTR Value PULSE(5 0 0 30n 30n 2m 4m)
SYMATTR InstName V2
SYMBOL voltage -304 224 R0
WINDOW 123 0 0 Left 0
WINDOW 39 0 0 Left 0
SYMATTR InstName V3
SYMATTR Value PULSE(5 0 0 30n 30n 1m 2m)
SYMBOL nmos 304 304 R0
SYMATTR InstName M3
SYMBOL nmos 304 432 R0
SYMATTR InstName M4
SYMBOL pmos 496 224 R180
SYMATTR InstName M2
SYMBOL pmos 208 224 M180
SYMATTR InstName M1
TEXT -352 520 Left 2 !.tran 10m
